Version 4
SHEET 1 880 680
WIRE -16 -80 -16 -128
WIRE -16 -80 -112 -80
WIRE 64 -80 -16 -80
WIRE -112 -32 -112 -80
WIRE 64 -32 64 -80
WIRE 64 96 64 48
WIRE 160 96 64 96
WIRE 192 96 160 96
WIRE 320 112 256 112
WIRE -112 128 -112 48
WIRE 192 128 -112 128
WIRE -112 192 -112 128
WIRE 64 192 64 96
WIRE 160 224 160 96
WIRE 192 224 160 224
WIRE 320 224 320 112
WIRE 320 224 272 224
WIRE -112 304 -112 272
WIRE -16 304 -112 304
WIRE 64 304 64 272
WIRE 64 304 -16 304
WIRE -16 336 -16 304
FLAG -288 192 0
FLAG -288 112 5V
FLAG 224 144 0
FLAG 224 80 5V
FLAG -16 336 0
FLAG -16 -128 5V
SYMBOL Opamps\\opamp2 224 48 R0
SYMATTR InstName U1
SYMATTR Value LM324
SYMBOL res -128 176 R0
SYMATTR InstName PT100
SYMATTR Value {R}
SYMBOL res 48 176 R0
SYMATTR InstName R2
SYMATTR Value 100
SYMBOL res 48 -48 R0
SYMATTR InstName R3
SYMATTR Value 4.7k
SYMBOL res -128 -48 R0
SYMATTR InstName R4
SYMATTR Value 4.7k
SYMBOL voltage -288 96 R0
WINDOW 123 0 0 Left 0
WINDOW 39 0 0 Left 0
SYMATTR InstName V1
SYMATTR Value 5V
SYMBOL res 288 208 R90
WINDOW 0 0 56 VBottom 2
WINDOW 3 32 56 VTop 2
SYMATTR InstName R7
SYMATTR Value 6.8k
TEXT 408 72 Left 2 !.lib LM324.ti.lib
TEXT -88 456 Left 2 !.step param R 100 140 1\n.op
