Version 4
SHEET 1 1164 1872
WIRE -624 272 -640 272
WIRE -480 272 -496 272
WIRE -224 352 -288 352
WIRE -80 352 -144 352
WIRE -480 384 -480 272
WIRE -288 464 -288 352
WIRE -208 464 -288 464
WIRE -80 480 -80 352
WIRE -80 480 -144 480
WIRE -560 496 -560 320
WIRE -480 496 -480 464
WIRE -480 496 -560 496
WIRE -208 496 -480 496
WIRE -480 544 -480 496
WIRE -288 544 -288 464
FLAG -880 368 0
FLAG -880 288 5V
FLAG -176 448 5V
FLAG -176 512 0
FLAG -480 624 0
FLAG -288 624 0
FLAG -640 272 5V
SYMBOL Opamps\\opamp2 -176 416 R0
SYMATTR InstName U1
SYMATTR Value LM324
SYMBOL voltage -880 272 R0
WINDOW 123 0 0 Left 0
WINDOW 39 0 0 Left 0
SYMATTR InstName V1
SYMATTR Value 5V
SYMBOL res -496 368 R0
SYMATTR InstName R1
SYMATTR Value 1.25k
SYMBOL res -496 528 R0
SYMATTR InstName PT100
SYMATTR Value {R}
SYMBOL res -128 336 R90
WINDOW 0 0 56 VBottom 2
WINDOW 3 32 56 VTop 2
SYMATTR InstName R2
SYMATTR Value 20k
SYMBOL res -304 528 R0
SYMATTR InstName R3
SYMATTR Value 1k
SYMBOL LM317 -560 272 R0
SYMATTR InstName U2
TEXT -648 216 Left 2 !.lib LM317.sub
TEXT -768 1856 Left 0 !.tran 10
TEXT -336 256 Left 2 !.lib LM324.ti.lib
TEXT -488 736 Left 2 !.step param R 100 140 1\n.op
